gridfm_datakit/grids/pglib_opf_case2000_goc_corrected.m
%% MATPOWER Case Format : Version 2
function mpc = pglib_opf_case2000_goc
mpc.version = '2';

%%-----  Power Flow Data  -----%%
%% system MVA base
mpc.baseMVA = 100.0;
%% bus data
%    bus_i    type    Pd    Qd    Gs    Bs    area    Vm    Va    baseKV    zone    Vmax    Vmin
mpc.bus = [
	1	1	0.0	0.0	0.0	0.0	1	1.0	0.0	138.0	1	1.1	0.9				
	2	1	0.0	0.0	0.0	0.0	1	1.0	0.0	69.0	1	1.1	0.9				
	3	1	63.032599	30.499177	0.0	0.0	1	1.0	0.0	138.0	1	1.1	0.9				
	4	1	39.872692	2.686688	0.0	0.0	1	1.0	0.0	69.0	1	1.1	0.9				
	5	1	59.861169999999994	29.465618999999997	0.0	0.0	1	1.0	0.0	69.0	1	1.1	0.9				
	6	1	52.61757	4.2656153	0.0	0.0	1	1.0	0.0	69.0	1	1.1	0.9				
	7	1	56.669624	12.18891	0.0	0.0	1	1.0	0.0	138.0	1	1.1	0.9				
	8	1	39.112858	10.233215	0.0	125.081972555	1	1.0	0.0	69.0	1	1.1	0.9				
	9	1	0.0	0.0	0.0	0.0	1	1.0	0.0	138.0	1	1.1	0.9				
	10	1	0.0	0.0	0.0	0.0	1	1.0	0.0	69.0	1	1.1	0.9				
	11	1	88.082752	28.939717000000005	0.0	0.0	1	1.0	0.0	138.0	1	1.1	0.9				
	12	1	0.0	0.0	0.0	0.0	1	1.0	0.0	138.0	1	1.1	0.9				
	13	1	82.616913	17.693369	0.0	0.0	1	1.0	0.0	69.0	1	1.1	0.9				
	14	1	0.0	0.0	0.0	0.0	1	1.0	0.0	138.0	1	1.1	0.9				
	15	1	124.08794	60.30090100000001	0.0	0.0	1	1.0	0.0	138.0	1	1.1	0.9				
	16	1	58.164336999999996	11.289482	0.0	0.0	1	1.0	0.0	69.0	1	1.1	0.9				
	17	1	45.635228	27.013902	0.0	0.0	1	1.0	0.0	69.0	1	1.1	0.9				
	18	1	0.0	0.0	0.0	0.0	1	1.0	0.0	69.0	1	1.1	0.9				
	19	1	16.253058	1.8417025	0.0	0.0	1	1.0	0.0	69.0	1	1.1	0.9				
	20	1	0.0	0.0	0.0	0.0	1	1.0	0.0	138.0	1	1.1	0.9				
	21	1	108.94234	13.34786	0.0	0.0	1	1.0	0.0	69.0	1	1.1	0.9				
	22	1	0.0	0.0	0.0	0.0	1	1.0	0.0	138.0	1	1.1	0.9				
	23	1	47.797985	7.0533189	0.0	0.0	1	1.0	0.0	69.0	1	1.1	0.9				
	24	1	13.259455	2.933591	0.0	0.0	1	1.0	0.0	69.0	1	1.1	0.9				
	25	1	16.010345	1.912179	0.0	0.0	1	1.0	0.0	69.0	1	1.1	0.9				
	26	1	0.0	0.0	0.0	0.0	1	1.0	0.0	138.0	1	1.1	0.9				
	27	1	60.23440599999999	15.982269000000002	0.0	0.0	1	1.0	0.0	69.0	1	1.1	0.9				
	28	1	0.0	0.0	0.0	0.0	1	1.0	0.0	138.0	1	1.1	0.9				
	29	1	79.633262	31.091927	0.0	0.0	1	1.0	0.0	69.0	1	1.1	0.9				
	30	1	59.447927	1.3231653	0.0	0.0	1	1.0	0.0	138.0	1	1.1	0.9				
	31	1	0.0	0.0	0.0	0.0	1	1.0	0.0	138.0	1	1.1	0.9				
	32	1	0.0	0.0	0.0	0.0	1	1.0	0.0	69.0	1	1.1	0.9				
	33	1	51.149767000000004	11.818091	0.0	0.0	1	1.0	0.0	138.0	1	1.1	0.9				
	34	1	54.772259	14.831048	0.0	0.0	1	1.0	0.0	138.0	1	1.1	0.9				
	35	1	61.33575	11.422704	0.0	0.0	1	1.0	0.0	69.0	1	1.1	0.9				
	36	1	46.058696	5.184763	0.0	0.0	1	1.0	0.0	69.0	1	1.1	0.9				
	37	1	71.28723	8.0567184	0.0	0.0	1	1.0	0.0	69.0	1	1.1	0.9				
	38	1	20.498477	5.1283346	0.0	0.0	1	1.0	0.0	69.0	1	1.1	0.9				
	39	1	0.0	0.0	0.0	0.0	1	1.0	0.0	138.0	1	1.1	0.9				
	40	1	56.791513	31.333152999999996	0.0	0.0	1	1.0	0.0	69.0	1	1.1	0.9				
	41	1	33.346278	11.155067	0.0	0.0	1	1.0	0.0	69.0	1	1.1	0.9				
	42	1	0.0	0.0	0.0	0.0	1	1.0	0.0	138.0	1	1.1	0.9				
	43	1	0.0	0.0	0.0	0.0	1	1.0	0.0	69.0	1	1.1	0.9				
	44	1	67.732614	38.37608	0.0	0.0	1	1.0	0.0	138.0	1	1.1	0.9				
	45	1	20.457976	3.8262549999999997	0.0	0.0	1	1.0	0.0	69.0	1	1.1	0.9				
	46	1	21.41017	4.0268279	0.0	0.0	1	1.0	0.0	69.0	1	1.1	0.9				
	47	1	0.0	0.0	0.0	0.0	1	1.0	0.0	345.0	1	1.1	0.9				
	48	1	0.0	0.0	0.0	0.0	1	1.0	0.0	138.0	1	1.1	0.9				
	49	1	0.0	0.0	0.0	0.0	1	1.0	0.0	69.0	1	1.1	0.9				
	50	1	42.770987	18.207567	0.0	0.0	1	1.0	0.0	345.0	1	1.1	0.9				
	51	1	26.867091	13.887133000000002	0.0	0.0	1	1.0	0.0	69.0	1	1.1	0.9				
	52	1	0.0	0.0	0.0	0.0	1	1.0	0.0	345.0	1	1.1	0.9				
	53	1	0.0	0.0	0.0	0.0	1	1.0	0.0	138.0	1	1.1	0.9				
	54	1	65.431926	21.104749	0.0	0.0	1	1.0	0.0	345.0	1	1.1	0.9				
	55	1	0.0	0.0	0.0	0.0	1	1.0	0.0	138.0	1	1.1	0.9				
	56	1	0.0	0.0	0.0	0.0	1	1.0	0.0	69.0	1	1.1	0.9				
	57	1	39.42829	2.9001465	0.0	0.0	1	1.0	0.0	138.0	1	1.1	0.9				
	58	1	29.126410000000003	11.744102	0.0	0.0	1	1.0	0.0	69.0	1	1.1	0.9				
	59	1	21.808205	7.3975388	0.0	0.0	1	1.0	0.0	69.0	1	1.1	0.9				
	60	1	16.084567	0.5157274	0.0	0.0	1	1.0	0.0	69.0	1	1.1	0.9				
	61	1	8.1954502	2.4931054	0.0	0.0	1	1.0	0.0	69.0	1	1.1	0.9				
	62	1	7.7017986	4.9119172	0.0	0.0	1	1.0	0.0	69.0	1	1.1	0.9				
	63	1	0.0	0.0	0.0	0.0	1	1.0	0.0	138.0	1	1.1	0.9				
	64	1	0.0	0.0	0.0	0.0	1	1.0	0.0	69.0	1	1.1	0.9				
	65	1	16.845318	8.7799289	0.0	0.0	1	1.0	0.0	138.0	1	1.1	0.9				
	66	1	7.8439512	2.9993174	0.0	0.0	1	1.0	0.0	69.0	1	1.1	0.9				
	67	1	0.0	0.0	0.0	0.0	1	1.0	0.0	138.0	1	1.1	0.9				
	68	1	0.0	0.0	0.0	0.0	1	1.0	0.0	69.0	1	1.1	0.9				
	69	1	9.5930041	5.0816634	0.0	0.0	1	1.0	0.0	138.0	1	1.1	0.9				
	70	1	7.315988099999999	0.62437414	0.0	0.0	1	1.0	0.0	69.0	1	1.1	0.9				
	71	1	0.0	0.0	0.0	0.0	1	1.0	0.0	138.0	1	1.1	0.9				
	72	1	12.029727	4.0129322	0.0	0.0	1	1.0	0.0	69.0	1	1.1	0.9				
	73	1	0.0	0.0	0.0	0.0	1	1.0	0.0	138.0	1	1.1	0.9				
	74	1	12.857525	1.0586832	0.0	8.49688906785	1	1.0	0.0	69.0	1	1.1	0.9				
	75	1	14.933717	4.8782627	0.0	0.0	1	1.0	0.0	69.0	1	1.1	0.9				
	76	1	0.0	0.0	0.0	0.0	1	1.0	0.0	138.0	1	1.1	0.9				
	77	1	0.0	0.0	0.0	0.0	1	1.0	0.0	69.0	1	1.1	0.9				
	78	1	26.426587	4.6764255	0.0	0.0	1	1.0	0.0	138.0	1	1.1	0.9				
	79	1	0.0	0.0	0.0	0.0	1	1.0	0.0	138.0	1	1.1	0.9				
	80	1	0.0	0.0	0.0	0.0	1	1.0	0.0	69.0	1	1.1	0.9				
	81	1	8.8550628	1.6739562	0.0	0.0	1	1.0	0.0	138.0	1	1.1	0.9				
	82	1	7.7923374	0.51391182	0.0	0.0	1	1.0	0.0	69.0	1	1.1	0.9				
	83	1	0.0	0.0	0.0	0.0	1	1.0	0.0	138.0	1	1.1	0.9				
	84	1	16.143781	5.1892803	0.0	0.0	1	1.0	0.0	138.0	1	1.1	0.9				
	85	1	0.0	0.0	0.0	0.0	1	1.0	0.0	138.0	1	1.1	0.9				
	86	1	0.0	0.0	0.0	0.0	1	1.0	0.0	138.0	1	1.1	0.9				
	87	1	0.0	0.0	0.0	0.0	1	1.0	0.0	69.0	1	1.1	0.9				
	88	1	52.38669300000001	12.736043	0.0	0.0	1	1.0	0.0	138.0	1	1.1	0.9				
	89	1	0.0	0.0	0.0	0.0	1	1.0	0.0	138.0	1	1.1	0.9				
	90	1	0.0	0.0	0.0	0.0	1	1.0	0.0	69.0	1	1.1	0.9				
	91	1	63.939018999999995	10.266533	0.0	0.0	1	1.0	0.0	138.0	1	1.1	0.9				
	92	1	29.053947	14.045926999999999	0.0	0.0	1	1.0	0.0	69.0	1	1.1	0.9				
	93	1	18.532061	4.3305549	0.0	13.0031149174	1	1.0	0.0	69.0	1	1.1	0.9				
	94	1	19.487602	3.2734475	0.0	0.0	1	1.0	0.0	69.0	1	1.1	0.9				
	95	1	60.043064	15.923783	0.0	0.00107396248384	1	1.0	0.0	69.0	1	1.1	0.9				
	96	1	0.0	0.0	0.0	0.0	1	1.0	0.0	345.0	1	1.1	0.9				
	97	1	0.0	0.0	0.0	0.0	1	1.0	0.0	138.0	1	1.1	0.9				
	98	1	0.0	0.0	0.0	0.0	1	1.0	0.0	69.0	1	1.1	0.9				
	99	1	72.519598	26.914313	0.0	0.0	1	1.0	0.0	138.0	1	1.1	0.9				
	100	1	0.0	0.0	0.0	0.0	1	1.0	0.0	138.0	1	1.1	0.9				
	101	1	0.0	0.0	0.0	0.0	1	1.0	0.0	69.0	1	1.1	0.9				
	102	1	80.213195	11.697076	0.0	0.0	1	1.0	0.0	138.0	1	1.1	0.9				
	103	1	42.864125	2.0052198	0.0	0.0	1	1.0	0.0	69.0	1	1.1	0.9				
	104	1	59.503172000000006	21.216872	0.0	0.0	1	1.0	0.0	69.0	1	1.1	0.9				
	105	1	0.0	0.0	0.0	0.000699764345338	1	1.0	0.0	345.0	1	1.1	0.9				
	106	1	0.0	0.0	0.0	0.0	1	1.0	0.0	138.0	1	1.1	0.9				
	107	1	0.0	0.0	0.0	0.0	1	1.0	0.0	69.0	1	1.1	0.9				
	108	1	78.973787	26.897779	0.0	0.0	1	1.0	0.0	345.0	1	1.1	0.9				
	109	1	42.500261	11.215608	0.0	0.0	1	1.0	0.0	69.0	1	1.1	0.9				
	110	1	0.0	0.0	0.0	0.0	1	1.0	0.0	138.0	1	1.1	0.9				
	111	1	0.0	0.0	0.0	0.0	1	1.0	0.0	69.0	1	1.1	0.9				
	112	1	70.32463	16.641277	0.0	0.0	1	1.0	0.0	138.0	1	1.1	0.9				
	113	1	44.282331	5.1595078	0.0	0.0	1	1.0	0.0	69.0	1	1.1	0.9				
	114	1	6.6539341	1.858247	0.0	-19.5770110823	1	1.0	0.0	69.0	1	1.1	0.9				
	115	1	38.288963	16.397994	0.0	0.0	1	1.0	0.0	69.0	1	1.1	0.9				
	116	1	14.043978	3.0853286	0.0	0.0	1	1.0	0.0	69.0	1	1.1	0.9				
	117	1	33.648509	1.2250378	0.0	0.0	1	1.0	0.0	69.0	1	1.1	0.9				
	118	1	14.131552	3.2964994999999995	0.0	0.0	1	1.0	0.0	69.0	1	1.1	0.9				
	119	1	42.68915	11.775552	0.0	0.0	1	1.0	0.0	69.0	1	1.1	0.9				
	120	1	63.129219000000006	43.045801	0.0	0.0	1	1.0	0.0	69.0	1	1.1	0.9				
	121	1	0.0	0.0	0.0	0.0	1	1.0	0.0	138.0	1	1.1	0.9				
	122	1	0.0	0.0	0.0	0.0	1	1.0	0.0	69.0	1	1.1	0.9				
	123	1	77.38747	23.99223	0.0	0.0	1	1.0	0.0	138.0	1	1.1	0.9				
	124	1	0.0	0.0	0.0	0.0	1	1.0	0.0	138.0	1	1.1	0.9				
	125	1	0.0	0.0	0.0	0.0	1	1.0	0.0	69.0	1	1.1	0.9				
	126	1	50.036685000000006	18.8862	0.0	0.0	1	1.0	0.0	138.0	1	1.1	0.9				
	127	1	25.701198999999995	6.4513541	0.0	0.0	1	1.0	0.0	69.0	1	1.1	0.9				
	128	1	31.024183999999998	7.4663783	0.0	0.000271209085663	1	1.0	0.0	69.0	1	1.1	0.9				
	129	1	0.0	0.0	0.0	0.0	1	1.0	0.0	69.0	1	1.1	0.9				
	130	1	73.035237	12.276959	0.0	0.0	1	1.0	0.0	69.0	1	1.1	0.9				
	131	1	41.142072	21.889228	0.0	168.570002396	1	1.0	0.0	69.0	1	1.1	0.9				
	132	1	0.0	0.0	0.0	0.0	1	1.0	0.0	138.0	1	1.1	0.9				
	133	1	70.971277	13.03429	0.0	0.0	1	1.0	0.0	69.0	1	1.1	0.9				
	134	1	0.0	0.0	0.0	0.0	1	1.0	0.0	138.0	1	1.1	0.9				
	135	1	0.0	0.0	0.0	0.0	1	1.0	0.0	138.0	1	1.1	0.9				
	136	1	0.0	0.0	0.0	0.0	1	1.0	0.0	69.0	1	1.1	0.9				
	137	1	135.163	17.105692	0.0	0.0	1	1.0	0.0	138.0	1	1.1	0.9				
	138	1	43.01499	5.0493889	0.0	0.0	1	1.0	0.0	69.0	1	1.1	0.9				
	139	1	0.0	0.0	0.0	0.0	1	1.0	0.0	138.0	1	1.1	0.9				
	140	1	97.888643	58.60083699999999	0.0	0.0	1	1.0	0.0	69.0	1	1.1	0.9				
	141	1	0.0	0.0	0.0	0.0	1	1.0	0.0	138.0	1	1.1	0.9				
	142	1	0.0	0.0	0.0	0.0	1	1.0	0.0	138.0	1	1.1	0.9				
	143	1	0.0	0.0	0.0	0.0	1	1.0	0.0	69.0	1	1.1	0.9				
	144	1	80.88225	15.434356	0.0	0.0	1	1.0	0.0	138.0	1	1.1	0.9				
	145	1	45.810324	5.309578	0.0	0.0	1	1.0	0.0	69.0	1	1.1	0.9				
	146	1	39.973054	8.7672214	0.0	0.0	1	1.0	0.0	69.0	1	1.1	0.9				
	147	1	0.0	0.0	0.0	0.0	1	1.0	0.0	138.0	1	1.1	0.9				
	148	1	0.0	0.0	0.0	0.0	1	1.0	0.0	69.0	1	1.1	0.9				
	149	1	69.114811	16.155095	0.0	0.0	1	1.0	0.0	138.0	1	1.1	0.9				
	150	1	50.329488	6.2763458	0.0	0.0	1	1.0	0.0	69.0	1	1.1	0.9				
	151	1	0.0	0.0	0.0	0.0	1	1.0	0.0	138.0	1	1.1	0.9				
	152	1	0.0	0.0	0.0	0.0	1	1.0	0.0	69.0	1	1.1	0.9				
	153	1	54.464316000000004	6.3389867	0.0	0.0	1	1.0	0.0	138.0	1	1.1	0.9				
	154	1	76.293089	16.102405	0.0	0.0	1	1.0	0.0	69.0	1	1.1	0.9				
	155	1	48.138363	2.1361487	0.0	0.0	1	1.0	0.0	69.0	1	1.1	0.9				
	156	1	48.095052	21.38875	0.0	0.0	1	1.0	0.0	69.0	1	1.1	0.9				
	157	1	45.6242	11.938822	0.0	0.0	1	1.0	0.0	138.0	1	1.1	0.9				
	158	1	71.854584	17.031862	0.0	0.0	1	1.0	0.0	138.0	1	1.1	0.9				
	159	1	0.0	0.0	0.0	371.14047516	1	1.0	0.0	345.0	1	1.1	0.9				
	160	1	0.0	0.0	0.0	0.0	1	1.0	0.0	138.0	1	1.1	0.9				
	161	1	0.0	0.0	0.0	0.0	1	1.0	0.0	69.0	1	1.1	0.9				
	162	1	71.133321	10.304815	0.0	0.0	1	1.0	0.0	138.0	1	1.1	0.9				
	163	1	42.982584	10.440698	0.0	0.0	1	1.0	0.0	69.0	1	1.1	0.9				
	164	1	27.968725	7.4335923	0.0	0.0	1	1.0	0.0	69.0	1	1.1	0.9				
	165	1	0.0	0.0	0.0	0.0	1	1.0	0.0	138.0	1	1.1	0.9				
	166	1	0.0	0.0	0.0	0.0	1	1.0	0.0	69.0	1	1.1	0.9				
	167	1	136.34574	82.948765	0.0	0.0	1	1.0	0.0	138.0	1	1.1	0.9				
	168	1	25.153536	4.7858244	0.0	0.0	1	1.0	0.0	69.0	1	1.1	0.9				
	169	1	48.057962	12.787909	0.0	27.422421374100004	1	1.0	0.0	69.0	1	1.1	0.9				
	170	1	0.0	0.0	0.0	0.0	1	1.0	0.0	138.0	1	1.1	0.9				
	171	1	0.0	0.0	0.0	0.0	1	1.0	0.0	69.0	1	1.1	0.9				
	172	1	64.99125	15.347642	0.0	0.0	1	1.0	0.0	138.0	1	1.1	0.9				
	173	1	49.812493	25.789267	0.0	61.4828684306	1	1.0	0.0	69.0	1	1.1	0.9				
	174	1	0.0	0.0	0.0	0.0	1	1.0	0.0	138.0	1	1.1	0.9				
	175	1	0.0	0.0	0.0	0.0	1	1.0	0.0	69.0	1	1.1	0.9				
	176	1	67.457252	7.9139351	0.0	0.0	1	1.0	0.0	138.0	1	1.1	0.9				
	177	1	32.640671	8.9909054	0.0	60.0971715131	1	1.0	0.0	69.0	1	1.1	0.9				
	178	1	21.471577	4.7353379	0.0	41.5651119656	1	1.0	0.0	69.0	1	1.1	0.9				
	179	1	43.099563	5.0539475	0.0	0.0	1	1.0	0.0	69.0	1	1.1	0.9				
	180	1	29.859916999999996	4.3108127	0.0	0.0	1	1.0	0.0	69.0	1	1.1	0.9				
	181	1	0.0	0.0	0.0	0.0	1	1.0	0.0	138.0	1	1.1	0.9				
	182	1	0.0	0.0	0.0	0.0	1	1.0	0.0	69.0	1	1.1	0.9				
	183	1	74.524277	17.467453	0.0	0.0	1	1.0	0.0	138.0	1	1.1	0.9				
	184	1	38.357391	2.7000183	0.0	0.0	1	1.0	0.0	69.0	1	1.1	0.9				
	185	1	27.527080000000005	4.7391381	0.0	0.0	1	1.0	0.0	69.0	1	1.1	0.9				
	186	1	35.411356	8.3667711	0.0	-63.3799211635	1	1.0	0.0	69.0	1	1.1	0.9				
	187	1	33.45286	10.163847	0.0	0.0	1	1.0	0.0	69.0	1	1.1	0.9				
	188	1	0.0	0.0	0.0	0.0	1	1.0	0.0	138.0	1	1.1	0.9				
	189	1	0.0	0.0	0.0	0.0	1	1.0	0.0	69.0	1	1.1	0.9				
	190	1	54.302808	12.182942	0.0	0.0	1	1.0	0.0	138.0	1	1.1	0.9				
	191	1	0.0	0.0	0.0	0.0	1	1.0	0.0	138.0	1	1.1	0.9				
	192	1	50.603533	21.904329	0.0	0.0	1	1.0	0.0	69.0	1	1.1	0.9				
	193	1	0.0	0.0	0.0	0.0	1	1.0	0.0	138.0	1	1.1	0.9				
	194	1	0.0	0.0	0.0	0.0	1	1.0	0.0	138.0	1	1.1	0.9				
	195	1	0.0	0.0	0.0	0.0	1	1.0	0.0	69.0	1	1.1	0.9				
	196	1	46.960527	7.8248051	0.0	0.0	1	1.0	0.0	138.0	1	1.1	0.9				
	197	1	39.102226	8.7138343	0.0	0.0	1	1.0	0.0	69.0	1	1.1	0.9				
	198	1	0.0	0.0	0.0	0.0	1	1.0	0.0	69.0	1	1.1	0.9				
	199	1	28.057407	3.7781352	0.0	0.000175080156541	1	1.0	0.0	69.0	1	1.1	0.9				
	200	1	35.117549	13.890587999999997	0.0	0.0	1	1.0	0.0	69.0	1	1.1	0.9				
...
];

%% generator data
%    bus    Pg    Qg    Qmax    Qmin    Vg    mBase    status    Pmax    Pmin    Pc1    Pc2    Qc1min    Qc1max    Qc2min    Qc2max    ramp_agc    ramp_10    ramp_30    ramp_q    apf
mpc.gen = [
	511	199.3925	57.09649999999999	146.041	-31.848	1.0	286.92	1	286.917	111.868															
	512	211.815	57.09649999999999	146.041	-31.848	1.0	286.92	1	286.917	136.713															
	513	202.3985	57.09649999999999	146.041	-31.848	1.0	286.92	1	286.917	117.87999999999998															
	514	203.4165	57.09649999999999	146.041	-31.848	1.0	286.92	1	286.917	119.916															
	515	215.024	57.09649999999999	146.041	-31.848	1.0	286.92	1	286.917	143.131															
	516	176.202	57.09649999999999	146.041	-31.848	1.0	286.92	1	286.917	65.487															
	518	17.532	5.273	13.488	-2.942	1.0	26.5	1	26.5	8.564															
	522	605.927	117.06	301.245	-67.125	1.0	818.6	1	818.6	393.254															
	523	455.499	117.06	301.245	-67.125	1.0	818.6	1	818.6	92.398															
	525	0.0	0.0	3.02	-0.659	1.0	5.93	0	5.933	1.3															
	525	0.0	0.0	3.02	-0.659	1.0	5.93	0	5.933	1.833															
	525	0.0	0.0	3.02	-0.659	1.0	5.93	0	5.933	2.076															
	525	0.0	0.0	3.02	-0.659	1.0	5.93	0	5.933	1.712															
	525	0.0	0.0	3.02	-0.659	1.0	5.93	0	5.933	1.58															
	525	0.0	0.0	3.02	-0.659	1.0	5.93	0	5.933	1.6760000000000002															
	529	0.0	0.0	124.603	-27.173	1.0	244.8	0	244.79999999999998	40.619															
	530	147.451	48.715	124.603	-27.173	1.0	244.8	1	244.79999999999998	50.102000000000004															
	531	174.0605	48.715	124.603	-27.173	1.0	244.8	1	244.79999999999998	103.321															
	532	168.6685	48.715	124.603	-27.173	1.0	244.8	1	244.79999999999998	92.537															
	533	163.709	48.715	124.603	-27.173	1.0	244.8	1	244.79999999999998	82.618															
	536	276.28	69.144	187.332	-49.044	1.0	402.0	1	401.99999999999994	150.56															
	537	286.569	69.144	187.332	-49.044	1.0	402.0	1	401.99999999999994	171.138															
	539	2.051	0.631	1.709	-0.447	1.0	3.67	1	3.6670000000000003	0.43499999999999994															
	539	2.4735	0.631	1.709	-0.447	1.0	3.67	1	3.6670000000000003	1.28															
	539	2.742	0.631	1.709	-0.447	1.0	3.67	1	3.6670000000000003	1.817															
	539	2.283	0.631	1.709	-0.447	1.0	3.67	1	3.6670000000000003	0.899															
	539	0.0	0.0	1.709	-0.447	1.0	3.67	0	3.6670000000000003	1.289															
	539	0.0	0.0	1.709	-0.447	1.0	3.67	0	3.6670000000000003	1.159															
	542	0.0	0.0	88.43	-19.284	1.0	173.73	0	173.733	56.291000000000004															
	543	111.8905	34.573	88.43	-19.284	1.0	173.73	1	173.733	50.048															
	544	127.1945	34.573	88.43	-19.284	1.0	173.73	1	173.733	80.656															
	545	0.0	0.0	88.43	-19.284	1.0	173.73	0	173.733	73.088															
	546	116.4245	34.573	88.43	-19.284	1.0	173.73	1	173.733	59.116															
	547	111.503	34.573	88.43	-19.284	1.0	173.73	1	173.733	49.273															
	551	624.0895	154.44	397.44	-88.56	1.0	1080.0	1	1080.0	168.179															
	552	626.361	154.44	397.44	-88.56	1.0	1080.0	1	1080.0	172.722															
	554	49.9325	13.611999999999998	34.816	-7.5920000000000005	1.0	68.4	1	68.4	31.465															
	554	43.5455	13.611999999999998	34.816	-7.5920000000000005	1.0	68.4	1	68.4	18.691															
	554	43.997	13.611999999999998	34.816	-7.5920000000000005	1.0	68.4	1	68.4	19.594															
	554	48.079	13.611999999999998	34.816	-7.5920000000000005	1.0	68.4	1	68.4	27.758															
	554	0.0	0.0	34.816	-7.5920000000000005	1.0	68.4	0	68.4	26.86															
	554	41.136	13.611999999999998	34.816	-7.5920000000000005	1.0	68.4	1	68.4	13.872000000000002															
	558	75.428	27.223	69.631	-15.185	1.0	136.8	1	136.8	14.056															
	559	0.0	0.0	69.631	-15.185	1.0	136.8	0	136.8	64.405															
	560	0.0	0.0	69.631	-15.185	1.0	136.8	0	136.8	41.032															
	561	82.724	27.223	69.631	-15.185	1.0	136.8	1	136.8	28.648															
	562	78.8815	27.223	69.631	-15.185	1.0	136.8	1	136.8	20.963															
	563	86.6705	27.223	69.631	-15.185	1.0	136.8	1	136.8	36.541															
	567	461.76849999999996	141.39	361.645	-78.865	1.0	710.5	1	710.5	213.037															
	568	419.97049999999996	141.39	361.645	-78.865	1.0	710.5	1	710.5	129.441															
	569	523.346	141.39	361.645	-78.865	1.0	710.5	1	710.5	336.192															
	570	393.325	141.39	361.645	-78.865	1.0	710.5	1	710.5	76.15															
	571	0.0	0.0	361.645	-78.865	1.0	710.5	0	710.5	73.471															
	572	0.0	0.0	361.645	-78.865	1.0	710.5	0	710.5	216.649															
	574	0.0	0.0	57.784	-15.128	1.0	124.0	0	124.0	57.005															
	575	85.8	21.328	57.784	-15.128	1.0	124.0	1	124.0	47.6															
	576	87.0925	21.328	57.784	-15.128	1.0	124.0	1	124.0	50.185															
	577	68.35	21.328	57.784	-15.128	1.0	124.0	1	124.0	12.7															
	578	70.853	21.328	57.784	-15.128	1.0	124.0	1	124.0	17.706															
	579	0.0	0.0	57.784	-15.128	1.0	124.0	0	124.0	36.442															
	581	13.283000000000001	3.6265	9.825	-2.572	1.0	21.08	1	21.083	5.483															
	582	13.656000000000002	3.6265	9.825	-2.572	1.0	21.08	1	21.083	6.229															
	582	13.6685	3.6265	9.825	-2.572	1.0	21.08	1	21.083	6.254															
	582	0.0	0.0	9.825	-2.572	1.0	21.08	0	21.083	7.481999999999999															
	582	12.7	3.6265	9.825	-2.572	1.0	21.08	1	21.083	4.317															
	582	0.0	0.0	9.825	-2.572	1.0	21.08	0	21.083	7.684															
	587	119.022	36.019	92.129	-20.091	1.0	181.0	1	181.0	57.044															
	588	123.0775	36.019	92.129	-20.091	1.0	181.0	1	181.0	65.155															
	590	8.913	3.124	7.991	-1.743	1.0	15.7	1	15.7	2.126															
	590	10.352	3.124	7.991	-1.743	1.0	15.7	1	15.7	5.004															
	594	233.1585	64.4265	164.789	-35.936	1.0	323.75	1	323.75	142.567															
	595	0.0	0.0	164.789	-35.936	1.0	323.75	0	323.75	54.77799999999999															
	596	235.47799999999998	64.4265	164.789	-35.936	1.0	323.75	1	323.75	147.206															
	597	185.277	64.4265	164.789	-35.936	1.0	323.75	1	323.75	46.804															
	599	0.0	0.0	3.1690000000000005	-0.83	1.0	6.8	0	6.800000000000001	3.324															
	599	0.0	0.0	3.1690000000000005	-0.83	1.0	6.8	0	6.800000000000001	0.698															
	599	0.0	0.0	3.1690000000000005	-0.83	1.0	6.8	0	6.800000000000001	0.905															
	599	0.0	0.0	3.1690000000000005	-0.83	1.0	6.8	0	6.800000000000001	1.101															
	599	0.0	0.0	3.1690000000000005	-0.83	1.0	6.8	0	6.800000000000001	3.2010000000000005															
	599	0.0	0.0	3.1690000000000005	-0.83	1.0	6.8	0	6.800000000000001	2.569															
	1208	0.0	0.0	5.701	-1.243	1.0	11.2	0	11.2	2.558															
	1208	0.0	0.0	5.701	-1.243	1.0	11.2	0	11.2	3.605															
	1212	91.7425	28.357	72.532	-15.817999999999998	1.0	142.5	1	142.5	40.985															
	1213	0.0	0.0	72.532	-15.817999999999998	1.0	142.5	0	142.5	55.372															
	1214	86.6565	28.357	72.532	-15.817999999999998	1.0	142.5	1	142.5	30.813000000000002															
	1216	57.1245	17.313	44.283	-9.657	1.0	87.0	1	87.0	27.249000000000002															
	1216	52.097	17.313	44.283	-9.657	1.0	87.0	1	87.0	17.194															
	1219	56.0685	14.482500000000002	39.237	-10.272	1.0	84.2	1	84.2	27.937															
	1219	46.75	14.482500000000002	39.237	-10.272	1.0	84.2	1	84.2	9.3															
	1219	47.4475	14.482500000000002	39.237	-10.272	1.0	84.2	1	84.2	10.695															
	1219	53.92	14.482500000000002	39.237	-10.272	1.0	84.2	1	84.2	23.64															
	1219	56.779	14.482500000000002	39.237	-10.272	1.0	84.2	1	84.2	29.358															
	1219	55.1095	14.482500000000002	39.237	-10.272	1.0	84.2	1	84.2	26.019															
	1226	0.0	0.0	101.23	-22.076	1.0	198.88	0	198.88	47.086															
	1227	127.50049999999999	39.577	101.23	-22.076	1.0	198.88	1	198.88	56.120999999999995															
	1228	130.3675	39.577	101.23	-22.076	1.0	198.88	1	198.88	61.85499999999999															
	1229	135.5645	39.577	101.23	-22.076	1.0	198.88	1	198.88	72.249															
	1230	0.0	0.0	101.23	-22.076	1.0	198.88	0	198.88	76.895															
	1232	0.0	0.0	2.723	-0.594	1.0	5.35	0	5.35	2.222															
	1233	0.0	0.0	2.723	-0.594	1.0	5.35	0	5.35	2.517															
	1237	129.6835	40.934	104.701	-22.833	1.0	205.7	1	205.7	53.667															
	1238	0.0	0.0	104.701	-22.833	1.0	205.7	0	205.7	30.886999999999997															
	1243	145.9405	39.681	101.495	-22.133	1.0	199.4	1	199.4	92.481															
	1244	123.285	39.681	101.495	-22.133	1.0	199.4	1	199.4	47.17															
	1246	0.0	0.0	21.378	-4.662	1.0	42.0	0	42.0	17.993															
	1251	99.6825	35.9	91.824	-20.024	1.0	180.4	1	180.4	18.965															
	1252	104.498	35.9	91.824	-20.024	1.0	180.4	1	180.4	28.596															
	1253	0.0	0.0	91.824	-20.024	1.0	180.4	0	180.4	62.389															
	1256	210.1575	66.811	170.888	-37.266	1.0	335.73	1	335.733	84.582															
	1257	0.0	0.0	170.888	-37.266	1.0	335.73	0	335.733	129.272															
	1258	195.9485	66.811	170.888	-37.266	1.0	335.73	1	335.733	56.164															
	1259	203.09	66.811	170.888	-37.266	1.0	335.73	1	335.733	70.447															
	1260	0.0	0.0	170.888	-37.266	1.0	335.73	0	335.733	47.366															
	1261	208.251	66.811	170.888	-37.266	1.0	335.73	1	335.733	80.769															
	1262	0.0	0.0	0.865	-0.189	1.0	1.7	0	1.7000000000000002	0.215															
	1266	0.0	0.0	216.457	-56.66899999999999	1.0	464.5	0	464.49999999999994	117.17199999999998															
	1267	0.0	0.0	216.457	-56.66899999999999	1.0	464.5	0	464.49999999999994	81.768															
	1271	132.243	36.218	92.638	-20.202	1.0	182.0	1	182.0	82.486															
	1272	130.3275	36.218	92.638	-20.202	1.0	182.0	1	182.0	78.655															
	1273	111.3065	36.218	92.638	-20.202	1.0	182.0	1	182.0	40.613															
	1274	124.98849999999999	36.218	92.638	-20.202	1.0	182.0	1	182.0	67.977															
	1277	0.0	0.0	23.176	-5.054	1.0	45.53	0	45.533	22.712															
	1277	0.0	0.0	23.176	-5.054	1.0	45.53	0	45.533	4.714															
	1277	0.0	0.0	23.176	-5.054	1.0	45.53	0	45.533	8.36															
	1281	144.997	49.869	127.55499999999999	-27.817000000000004	1.0	250.6	1	250.59999999999997	39.394															
	1282	170.8875	49.869	127.55499999999999	-27.817000000000004	1.0	250.6	1	250.59999999999997	91.175															
	1283	0.0	0.0	127.55499999999999	-27.817000000000004	1.0	250.6	0	250.59999999999997	104.51000000000002															
	1284	186.507	49.869	127.55499999999999	-27.817000000000004	1.0	250.6	1	250.59999999999997	122.414															
	1285	155.499	49.869	127.55499999999999	-27.817000000000004	1.0	250.6	1	250.59999999999997	60.39800000000001															
	1289	0.0	0.0	109.299	-23.835	1.0	214.73	0	214.733	106.491															
	1290	0.0	0.0	109.299	-23.835	1.0	214.73	0	214.733	100.35700000000001															
	1291	142.397	42.732	109.299	-23.835	1.0	214.73	1	214.733	70.061															
	1295	224.2795	64.4265	164.789	-35.936	1.0	323.75	1	323.75	124.809															
	1296	241.37	64.4265	164.789	-35.936	1.0	323.75	1	323.75	158.99															
	1297	222.09500000000003	64.4265	164.789	-35.936	1.0	323.75	1	323.75	120.44															
	1298	230.6285	64.4265	164.789	-35.936	1.0	323.75	1	323.75	137.507															
	1300	0.0	0.0	1.476	-0.322	1.0	2.9	0	2.9	1.047															
	1300	50.03949999999999	13.91	35.579	-7.759	1.0	69.9	1	69.9	30.179000000000002															
	1300	48.9705	13.91	35.579	-7.759	1.0	69.9	1	69.9	28.041															
	1300	40.167	13.91	35.579	-7.759	1.0	69.9	1	69.9	10.434															
	1300	46.6465	13.91	35.579	-7.759	1.0	69.9	1	69.9	23.393															
	1301	0.0	0.0	1.476	-0.322	1.0	2.9	0	2.9	0.49699999999999994															
	1303	137.322	45.6575	116.78199999999998	-25.467000000000002	1.0	229.43	1	229.433	45.211															
	1303	0.0	0.0	116.78199999999998	-25.467000000000002	1.0	229.43	0	229.433	51.807															
	1303	158.8135	45.6575	116.78199999999998	-25.467000000000002	1.0	229.43	1	229.433	88.194															
	1308	0.0	0.0	89.482	-19.514	1.0	175.8	0	175.8	61.666															
	1309	111.23699999999998	34.984	89.482	-19.514	1.0	175.8	1	175.8	46.674															
	1310	125.8785	34.984	89.482	-19.514	1.0	175.8	1	175.8	75.957															
	1311	0.0	0.0	89.482	-19.514	1.0	175.8	0	175.8	23.848															
	1313	0.79	0.2065	0.559	-0.146	1.0	1.2	1	1.2	0.38															
	1313	0.0	0.0	3.8830000000000005	-1.017	1.0	8.33	0	8.333	1.146															
	1313	0.8089999999999999	0.2065	0.559	-0.146	1.0	1.2	1	1.2	0.418															
	1313	1.4495	0.43	1.165	-0.305	1.0	2.5	1	2.5	0.399															
	1313	1.5575	0.43	1.165	-0.305	1.0	2.5	1	2.5	0.615															
	1313	0.0	0.0	3.8830000000000005	-1.017	1.0	8.33	0	8.333	2.53															
	1313	0.0	0.0	3.8830000000000005	-1.017	1.0	8.33	0	8.333	2.739															
	1313	5.963	1.433	3.8830000000000005	-1.017	1.0	8.33	1	8.333	3.5929999999999995															
	1313	5.5175	1.433	3.8830000000000005	-1.017	1.0	8.33	1	8.333	2.702															
	1313	0.0	0.0	3.8830000000000005	-1.017	1.0	8.33	0	8.333	3.708															
	1318	122.39899999999999	39.8	101.8	-22.2	1.0	200.0	1	200.0	44.798															
	1319	140.125	39.8	101.8	-22.2	1.0	200.0	1	200.0	80.25															
	1320	131.923	39.8	101.8	-22.2	1.0	200.0	1	200.0	63.84599999999999															
	1325	564.028	160.734	435.4769999999999	-114.009	1.0	934.5	1	934.5000000000001	193.556															
	1326	658.5845	160.734	435.4769999999999	-114.009	1.0	934.5	1	934.5000000000001	382.669															
	1328	31.719	9.7525	26.422	-6.917	1.0	56.7	1	56.7	6.738000000000001															
	1328	33.4295	9.7525	26.422	-6.917	1.0	56.7	1	56.7	10.159															
	1328	37.3085	9.7525	26.422	-6.917	1.0	56.7	1	56.7	17.917															
	1328	36.575	9.7525	26.422	-6.917	1.0	56.7	1	56.7	16.45															
	1330	48.1835	17.114	43.774	-9.546	1.0	86.0	1	86.0	10.367															
	1330	53.2595	17.114	43.774	-9.546	1.0	86.0	1	86.0	20.519															
	1330	58.9985	17.114	43.774	-9.546	1.0	86.0	1	86.0	31.996999999999996															
	1332	0.0	0.0	0.0	0.0	1.0	1.0	0	1.0	0.404															
	1332	2.013	0.0	0.0	0.0	1.0	2.7	1	2.7	1.326															
	1332	2.1075	0.0	0.0	0.0	1.0	3.5	1	3.5000000000000004	0.715															
	1332	17.664	0.0	0.0	0.0	1.0	25.0	1	25.0	10.328															
	1336	88.498	27.670499999999997	70.776	-15.435000000000002	1.0	139.05	1	139.05	37.946															
	1337	101.11049999999999	27.670499999999997	70.776	-15.435000000000002	1.0	139.05	1	139.05	63.171															
	1341	0.0	0.0	169.531	-44.384	1.0	363.8	0	363.8	134.77															
	1343	31.948999999999998	9.313	23.821	-5.195	1.0	46.8	1	46.8	17.098															
	1345	0.0	0.0	19.495	-4.251	1.0	38.3	0	38.3	4.815															
	1346	0.0	0.0	19.495	-4.251	1.0	38.3	0	38.3	17.942															
	1346	0.0	0.0	19.495	-4.251	1.0	38.3	0	38.3	17.183															
	1346	0.0	0.0	19.495	-4.251	1.0	38.3	0	38.3	12.737000000000002															
	1348	0.0	0.0	2.087	-0.455	1.0	4.1	0	4.1	1.28															
	1348	0.0	0.0	2.087	-0.455	1.0	4.1	0	4.1	0.484															
	1350	3.192	0.0	0.0	0.0	1.0	5.1	1	5.1	1.284															
	1350	5.955	0.0	0.0	0.0	1.0	10.0	1	10.0	1.91															
	1352	0.0	0.0	8.947	-2.342	1.0	19.2	0	19.2	3.4319999999999995															
	1354	0.0	0.0	13.539000000000001	-2.953	1.0	26.6	0	26.6	8.702															
	1356	0.0	0.0	17.153	-3.7409999999999997	1.0	33.7	0	33.7	11.2															
	1360	287.578	81.2085	207.714	-45.297	1.0	408.08	1	408.0830000000001	167.073															
	1361	0.0	0.0	207.714	-45.297	1.0	408.08	0	408.0830000000001	44.635															
	1362	275.2035	81.2085	207.714	-45.297	1.0	408.08	1	408.0830000000001	142.324															
	1363	0.0	0.0	207.714	-45.297	1.0	408.08	0	408.0830000000001	195.064															
	1364	279.582	81.2085	207.714	-45.297	1.0	408.08	1	408.0830000000001	151.081															
	1365	245.173	81.2085	207.714	-45.297	1.0	408.08	1	408.0830000000001	82.263															
	1370	0.0	0.0	212.32099999999997	-55.586	1.0	455.63	0	455.62500000000006	138.412															
	1371	0.0	0.0	212.32099999999997	-55.586	1.0	455.63	0	455.62500000000006	88.104															
	1372	0.0	0.0	212.32099999999997	-55.586	1.0	455.63	0	455.62500000000006	105.861															
	1373	0.0	0.0	212.32099999999997	-55.586	1.0	455.63	0	455.62500000000006	111.3															
...
];

%% branch data
%    f_bus    t_bus    r    x    b    rateA    rateB    rateC    ratio    angle    status    angmin    angmax
mpc.branch = [
	1	3	0.00023182	0.00102493	0.0	99999.0	99999.0	99999.0	0	0	1	-29.999999999999996	29.999999999999996								
	1	28	0.00413857	0.0270728	0.00746341	219.62	219.62	219.62	0	0	1	-29.999999999999996	29.999999999999996								
	1	174	0.00529188	0.0209981	0.0166533	241.75	241.75	241.75	0	0	1	-29.999999999999996	29.999999999999996								
	1	174	0.00529188	0.0209981	0.0166533	241.75	241.75	241.75	0	0	1	-29.999999999999996	29.999999999999996								
	1	247	0.00712647	0.0357571	0.00985329	265.68	265.68	265.68	0	0	1	-29.999999999999996	29.999999999999996								
	1	248	0.00369663	0.021138	0.0100986	243.82999999999998	243.82999999999998	243.82999999999998	0	0	1	-29.999999999999996	29.999999999999996								
	2	23	0.0104592	0.0332497	0.00196885	79.04	79.04	79.04	0	0	1	-29.999999999999996	29.999999999999996								
	2	23	0.0104592	0.0332497	0.00196885	79.04	79.04	79.04	0	0	1	-29.999999999999996	29.999999999999996								
	2	23	0.0104592	0.0332497	0.00196885	79.04	79.04	79.04	0	0	0	-29.999999999999996	29.999999999999996								
	4	128	0.0132902	0.0268195	0.00578327	64.44	64.44	64.44	0	0	1	-29.999999999999996	29.999999999999996								
	4	164	0.0219322	0.0591199	0.0121884	52.0	52.0	52.0	0	0	1	-29.999999999999996	29.999999999999996								
	5	4	0.0108814	0.0309317	0.0010461	80.95	80.95	80.95	0	0	1	-29.999999999999996	29.999999999999996								
	5	10	0.00934009	0.0255526	0.00609131	108.59	108.59	108.59	0	0	1	-29.999999999999996	29.999999999999996								
	6	13	0.0134592	0.0297145	0.0015211	65.19	65.19	65.19	0	0	1	-29.999999999999996	29.999999999999996								
	6	13	0.0134592	0.0297145	0.0015211	65.19	65.19	65.19	0	0	1	-29.999999999999996	29.999999999999996								
	6	43	0.0177663	0.0495402	0.00459009	81.61	81.61	81.61	0	0	1	-29.999999999999996	29.999999999999996								
	6	43	0.0177663	0.0495402	0.00459009	81.61	81.61	81.61	0	0	1	-29.999999999999996	29.999999999999996								
	6	43	0.0177663	0.0495402	0.00459009	81.61	81.61	81.61	0	0	1	-29.999999999999996	29.999999999999996								
	7	86	0.00434889	0.0146316	0.0344193	256.34	256.34	256.34	0	0	1	-29.999999999999996	29.999999999999996								
	7	86	0.00434889	0.0146316	0.0344193	256.34	256.34	256.34	0	0	1	-29.999999999999996	29.999999999999996								
	7	86	0.00434889	0.0146316	0.0344193	256.34	256.34	256.34	0	0	1	-29.999999999999996	29.999999999999996								
	8	214	0.0177395	0.0479832	0.00111804	105.15999999999998	105.15999999999998	105.15999999999998	0	0	1	-29.999999999999996	29.999999999999996								
	9	7	0.00214021	0.0150334	0.0121318	319.17	319.17	319.17	0	0	1	-29.999999999999996	29.999999999999996								
	9	11	0.000211449	0.00119004	0.0	99999.0	99999.0	99999.0	0	0	1	-29.999999999999996	29.999999999999996								
	9	208	0.00444784	0.0271527	0.0302679	318.16	318.16	318.16	0	0	0	-29.999999999999996	29.999999999999996								
	10	6	0.0170262	0.0421583	0.00119287	86.29	86.29	86.29	0	0	1	-29.999999999999996	29.999999999999996								
	12	14	0.000238768	0.00116074	0.0	99999.0	99999.0	99999.0	0	0	1	-29.999999999999996	29.999999999999996								
	13	8	0.0165507	0.0426667	0.00366785	133.11	133.11	133.11	0	0	1	-29.999999999999996	29.999999999999996								
	13	17	0.0320514	0.0754904	0.00235805	82.53	82.53	82.53	0	0	1	-29.999999999999996	29.999999999999996								
	13	187	0.0069238	0.0171061	0.00801142	79.4	79.4	79.4	0	0	1	-29.999999999999996	29.999999999999996								
	14	9	0.00364564	0.0218068	0.0060302	172.04	172.04	172.04	0	0	1	-29.999999999999996	29.999999999999996								
	15	151	0.00171507	0.0115251	0.0086048	286.2	286.2	286.2	0	0	1	-29.999999999999996	29.999999999999996								
	15	211	0.00192474	0.0105067	0.00425216	280.32	280.32	280.32	0	0	1	-29.999999999999996	29.999999999999996								
	15	232	0.0046	0.029799	0.0212613	280.54	280.54	280.54	0	0	1	-29.999999999999996	29.999999999999996								
	15	232	0.0046	0.029799	0.0212613	321.13	321.13	321.13	0	0	1	-29.999999999999996	29.999999999999996								
	16	21	0.011558	0.0357297	0.00234347	105.45	105.45	105.45	0	0	1	-29.999999999999996	29.999999999999996								
	16	35	0.00813416	0.0195601	0.00218755	92.42	92.42	92.42	0	0	1	-29.999999999999996	29.999999999999996								
	16	37	0.0129734	0.0401236	0.000641011	73.63	73.63	73.63	0	0	1	-29.999999999999996	29.999999999999996								
	17	43	0.0167472	0.042412	0.00168994	99.4	99.4	99.4	0	0	1	-29.999999999999996	29.999999999999996								
	18	19	0.000249168	0.00107953	0.0	99999.0	99999.0	99999.0	0	0	1	-29.999999999999996	29.999999999999996								
	18	187	0.018127	0.0528191	0.00213896	73.01	73.01	73.01	0	0	1	-29.999999999999996	29.999999999999996								
	18	187	0.018127	0.0528191	0.00213896	82.62	82.62	82.62	0	0	1	-29.999999999999996	29.999999999999996								
	20	22	0.000219564	0.00118149	0.0	99999.0	99999.0	99999.0	0	0	1	-29.999999999999996	29.999999999999996								
	21	38	0.0228097	0.052298	0.00200842	68.0	68.0	68.0	0	0	1	-29.999999999999996	29.999999999999996								
	21	38	0.0228097	0.052298	0.00200842	68.0	68.0	68.0	0	0	1	-29.999999999999996	29.999999999999996								
	22	34	0.00459707	0.0237513	0.0317594	215.75000000000003	215.75000000000003	215.75000000000003	0	0	1	-29.999999999999996	29.999999999999996								
	22	86	0.0024419	0.0144345	0.00822082	267.98	267.98	267.98	0	0	1	-29.999999999999996	29.999999999999996								
	22	215	0.00318566	0.01486	0.0134473	258.04	258.04	258.04	0	0	1	-29.999999999999996	29.999999999999996								
	22	215	0.00318566	0.01486	0.0134473	258.04	258.04	258.04	0	0	1	-29.999999999999996	29.999999999999996								
	22	215	0.00318566	0.01486	0.0134473	258.04	258.04	258.04	0	0	1	-29.999999999999996	29.999999999999996								
	22	548	0.00620426	0.0329366	0.0176561	258.61	258.61	258.61	0	0	1	-29.999999999999996	29.999999999999996								
	22	548	0.00620426	0.0329366	0.0176561	258.61	258.61	258.61	0	0	1	-29.999999999999996	29.999999999999996								
	22	548	0.00620426	0.0329366	0.0176561	258.61	258.61	258.61	0	0	1	-29.999999999999996	29.999999999999996								
	23	177	0.0167668	0.0454559	0.00130041	75.07	75.07	75.07	0	0	1	-29.999999999999996	29.999999999999996								
	24	16	0.0118471	0.0318563	0.00208615	99.33	99.33	99.33	0	0	1	-29.999999999999996	29.999999999999996								
	24	25	0.000264528	0.00110156	0.0	99999.0	99999.0	99999.0	0	0	1	-29.999999999999996	29.999999999999996								
	24	41	0.015854	0.041633	0.00114618	67.07	67.07	67.07	0	0	1	-29.999999999999996	29.999999999999996								
	24	41	0.015854	0.041633	0.00114618	67.07	67.07	67.07	0	0	1	-29.999999999999996	29.999999999999996								
	26	28	0.000288654	0.00112215	0.0	99999.0	99999.0	99999.0	0	0	1	-29.999999999999996	29.999999999999996								
	27	23	0.0127749	0.0299585	0.00159547	59.209999999999994	59.209999999999994	59.209999999999994	0	0	1	-29.999999999999996	29.999999999999996								
	27	177	0.0148095	0.0384174	0.00194579	76.41	76.41	76.41	0	0	1	-29.999999999999996	29.999999999999996								
	27	219	0.0146725	0.0356523	0.000881023	55.36	55.36	55.36	0	0	1	-29.999999999999996	29.999999999999996								
	28	165	0.00356549	0.0232361	0.00589297	350.0	350.0	350.0	0	0	1	-29.999999999999996	29.999999999999996								
	28	174	0.00146485	0.0101278	0.00457715	241.31	241.31	241.31	0	0	1	-29.999999999999996	29.999999999999996								
	28	555	0.00683845	0.0343749	0.0208829	322.49	322.49	322.49	0	0	0	-29.999999999999996	29.999999999999996								
	29	252	0.0190813	0.056663	0.00108459	60.63000000000001	60.63000000000001	60.63000000000001	0	0	1	-29.999999999999996	29.999999999999996								
	29	267	0.0244295	0.0641456	0.00258533	81.86	81.86	81.86	0	0	1	-29.999999999999996	29.999999999999996								
	29	557	0.00231061	0.00635728	0.000323514	96.22	96.22	96.22	0	0	1	-29.999999999999996	29.999999999999996								
	29	557	0.00231061	0.00635728	0.000323514	109.17000000000002	109.17000000000002	109.17000000000002	0	0	1	-29.999999999999996	29.999999999999996								
	30	31	0.0017784	0.0116988	0.00650237	191.0	191.0	191.0	0	0	1	-29.999999999999996	29.999999999999996								
	31	33	0.000274453	0.00119906	0.0	99999.0	99999.0	99999.0	0	0	1	-29.999999999999996	29.999999999999996								
	31	42	0.00623491	0.0279952	0.00721758	229.38	229.38	229.38	0	0	1	-29.999999999999996	29.999999999999996								
	32	17	0.0264094	0.065065	0.0020865	68.42	68.42	68.42	0	0	1	-29.999999999999996	29.999999999999996								
	32	17	0.0264094	0.065065	0.0020865	68.42	68.42	68.42	0	0	1	-29.999999999999996	29.999999999999996								
	32	283	0.0142241	0.0432463	0.00220303	67.66	67.66	67.66	0	0	1	-29.999999999999996	29.999999999999996								
	32	283	0.0142241	0.0432463	0.00220303	67.66	67.66	67.66	0	0	1	-29.999999999999996	29.999999999999996								
	34	31	0.003786	0.0214023	0.00785309	232.20000000000002	232.20000000000002	232.20000000000002	0	0	1	-29.999999999999996	29.999999999999996								
	34	31	0.003786	0.0214023	0.00785309	232.20000000000002	232.20000000000002	232.20000000000002	0	0	1	-29.999999999999996	29.999999999999996								
	34	39	0.00416941	0.0265708	0.00900656	241.19000000000003	241.19000000000003	241.19000000000003	0	0	1	-29.999999999999996	29.999999999999996								
	34	39	0.00416941	0.0265708	0.00900656	241.19000000000003	241.19000000000003	241.19000000000003	0	0	1	-29.999999999999996	29.999999999999996								
	34	564	0.00581665	0.0316411	0.00756963	215.42	215.42	215.42	0	0	1	-29.999999999999996	29.999999999999996								
	35	238	0.0300367	0.0904545	0.00848998	62.8	62.8	62.8	0	0	1	-29.999999999999996	29.999999999999996								
	35	557	0.0312946	0.0706114	0.00282773	76.09	76.09	76.09	0	0	1	-29.999999999999996	29.999999999999996								
	35	557	0.0312946	0.0706114	0.00282773	76.09	76.09	76.09	0	0	1	-29.999999999999996	29.999999999999996								
	35	557	0.0312946	0.0706114	0.00282773	76.09	76.09	76.09	0	0	1	-29.999999999999996	29.999999999999996								
	36	35	0.0265135	0.047453	0.00141328	68.8	68.8	68.8	0	0	1	-29.999999999999996	29.999999999999996								
	36	35	0.0265135	0.047453	0.00141328	68.8	68.8	68.8	0	0	1	-29.999999999999996	29.999999999999996								
	36	245	0.0293616	0.0673862	0.0011626	49.63	49.63	49.63	0	0	1	-29.999999999999996	29.999999999999996								
	36	249	0.00801014	0.0261499	0.00092202	75.41	75.41	75.41	0	0	1	-29.999999999999996	29.999999999999996								
	36	249	0.00801014	0.0261499	0.00092202	75.41	75.41	75.41	0	0	1	-29.999999999999996	29.999999999999996								
	36	249	0.00801014	0.0261499	0.00092202	75.41	75.41	75.41	0	0	1	-29.999999999999996	29.999999999999996								
	36	557	0.0164183	0.0420729	0.0024045	101.25	101.25	101.25	0	0	1	-29.999999999999996	29.999999999999996								
	37	21	0.0161314	0.0299526	0.00131014	73.06	73.06	73.06	0	0	1	-29.999999999999996	29.999999999999996								
	37	35	0.0126768	0.0268139	0.00271526	77.95	77.95	77.95	0	0	1	-29.999999999999996	29.999999999999996								
	37	35	0.0126768	0.0268139	0.00271526	77.95	77.95	77.95	0	0	1	-29.999999999999996	29.999999999999996								
	37	35	0.0126768	0.0268139	0.00271526	77.95	77.95	77.95	0	0	1	-29.999999999999996	29.999999999999996								
	37	38	0.0187055	0.0608938	0.00196692	68.2	68.2	68.2	0	0	1	-29.999999999999996	29.999999999999996								
	37	38	0.0187055	0.0608938	0.00196692	68.2	68.2	68.2	0	0	1	-29.999999999999996	29.999999999999996								
	37	87	0.0221178	0.0564016	0.00139673	86.12	86.12	86.12	0	0	1	-29.999999999999996	29.999999999999996								
	38	173	0.0177711	0.0570116	0.00116236	92.96	92.96	92.96	0	0	1	-29.999999999999996	29.999999999999996								
	40	263	0.0271487	0.0714019	0.00446768	55.15	55.15	55.15	0	0	1	-29.999999999999996	29.999999999999996								
	40	276	0.0226872	0.0486309	0.000835191	72.1	72.1	72.1	0	0	1	-29.999999999999996	29.999999999999996								
	40	276	0.0226872	0.0486309	0.000835191	72.1	72.1	72.1	0	0	1	-29.999999999999996	29.999999999999996								
	42	14	0.00495081	0.0249773	0.0106939	198.72	198.72	198.72	0	0	1	-29.999999999999996	29.999999999999996								
	42	44	0.000209978	0.00108899	0.0	99999.0	99999.0	99999.0	0	0	1	-29.999999999999996	29.999999999999996								
	43	46	0.0241647	0.0448606	0.00129086	89.95	89.95	89.95	0	0	1	-29.999999999999996	29.999999999999996								
	45	46	0.0251788	0.0603475	0.00162961	107.1	107.1	107.1	0	0	1	-29.999999999999996	29.999999999999996								
	45	275	0.0163836	0.035907	0.00183584	66.64	66.64	66.64	0	0	1	-29.999999999999996	29.999999999999996								
	46	209	0.0238416	0.0619123	0.0025303	76.82	76.82	76.82	0	0	1	-29.999999999999996	29.999999999999996								
	47	50	0.000237887	0.00109477	0.0	99999.0	99999.0	99999.0	0	0	1	-29.999999999999996	29.999999999999996								
	47	524	0.000539494	0.00584139	0.118909	1062.02	1062.02	1062.02	0	0	1	-29.999999999999996	29.999999999999996								
	48	73	0.0147435	0.0749894	0.0160216	226.94	226.94	226.94	0	0	1	-29.999999999999996	29.999999999999996								
	48	534	0.00216759	0.0137543	0.0523514	269.8	269.8	269.8	0	0	1	-29.999999999999996	29.999999999999996								
	48	534	0.00216759	0.0137543	0.0523514	269.8	269.8	269.8	0	0	1	-29.999999999999996	29.999999999999996								
	48	534	0.00216759	0.0137543	0.0523514	269.8	269.8	269.8	0	0	1	-29.999999999999996	29.999999999999996								
	49	60	0.0218319	0.051633	0.00357013	71.51	71.51	71.51	0	0	1	-29.999999999999996	29.999999999999996								
	51	61	0.0394089	0.115713	0.0202389	110.00000000000001	110.00000000000001	110.00000000000001	0	0	1	-29.999999999999996	29.999999999999996								
	51	200	0.0312098	0.0713229	0.00237936	112.35	112.35	112.35	0	0	1	-29.999999999999996	29.999999999999996								
	52	54	0.000204513	0.00101533	0.0	99999.0	99999.0	99999.0	0	0	1	-29.999999999999996	29.999999999999996								
	52	159	0.000268521	0.00355215	0.0808721	1160.4	1160.4	1160.4	0	0	1	-29.999999999999996	29.999999999999996								
	53	158	0.00438862	0.024717	0.00913984	247.5	247.5	247.5	0	0	1	-29.999999999999996	29.999999999999996								
	53	193	0.00421062	0.0273134	0.0266542	259.13	259.13	259.13	0	0	1	-29.999999999999996	29.999999999999996								
	53	193	0.00421062	0.0273134	0.0266542	259.13	259.13	259.13	0	0	1	-29.999999999999996	29.999999999999996								
	53	193	0.00421062	0.0273134	0.0266542	259.13	259.13	259.13	0	0	1	-29.999999999999996	29.999999999999996								
	53	521	0.00640328	0.0509321	0.00899089	295.34	295.34	295.34	0	0	1	-29.999999999999996	29.999999999999996								
	53	521	0.00640328	0.0509321	0.00899089	295.34	295.34	295.34	0	0	1	-29.999999999999996	29.999999999999996								
	55	48	0.0054273	0.0328757	0.0133538	200.97	200.97	200.97	0	0	1	-29.999999999999996	29.999999999999996								
	55	53	0.00501826	0.0245394	0.0149817	287.21	287.21	287.21	0	0	1	-29.999999999999996	29.999999999999996								
	55	53	0.00501826	0.0245394	0.0149817	287.21	287.21	287.21	0	0	1	-29.999999999999996	29.999999999999996								
	55	53	0.00501826	0.0245394	0.0149817	287.21	287.21	287.21	0	0	1	-29.999999999999996	29.999999999999996								
	55	57	0.000297933	0.00100615	0.0	99999.0	99999.0	99999.0	0	0	1	-29.999999999999996	29.999999999999996								
	55	521	0.0060725	0.0302758	0.0132185	226.91	226.91	226.91	0	0	1	-29.999999999999996	29.999999999999996								
	55	534	0.00415165	0.0209214	0.0199132	278.07	278.07	278.07	0	0	1	-29.999999999999996	29.999999999999996								
	55	534	0.00415165	0.0209214	0.0199132	278.07	278.07	278.07	0	0	1	-29.999999999999996	29.999999999999996								
	55	534	0.00415165	0.0209214	0.0199132	278.07	278.07	278.07	0	0	1	-29.999999999999996	29.999999999999996								
	55	538	0.0124503	0.0306121	0.0100872	241.11	241.11	241.11	0	0	1	-29.999999999999996	29.999999999999996								
	55	538	0.0124503	0.0306121	0.0100872	241.11	241.11	241.11	0	0	1	-29.999999999999996	29.999999999999996								
	58	56	0.0232941	0.04945	0.00381086	81.24	81.24	81.24	0	0	1	-29.999999999999996	29.999999999999996								
	58	56	0.0232941	0.04945	0.00381086	81.24	81.24	81.24	0	0	1	-29.999999999999996	29.999999999999996								
	58	56	0.0232941	0.04945	0.00381086	81.24	81.24	81.24	0	0	1	-29.999999999999996	29.999999999999996								
	59	528	0.0218772	0.0556881	0.00172262	73.29	73.29	73.29	0	0	1	-29.999999999999996	29.999999999999996								
	59	528	0.0218772	0.0556881	0.00172262	80.37	80.37	80.37	0	0	1	-29.999999999999996	29.999999999999996								
	60	59	0.0260598	0.0575497	0.00437377	65.99	65.99	65.99	0	0	1	-29.999999999999996	29.999999999999996								
	60	59	0.0260598	0.0575497	0.00437377	65.99	65.99	65.99	0	0	1	-29.999999999999996	29.999999999999996								
	60	66	0.0716723	0.182181	0.0051759	70.21	70.21	70.21	0	0	1	-29.999999999999996	29.999999999999996								
	63	65	0.000239799	0.0010442	0.0	99999.0	99999.0	99999.0	0	0	1	-29.999999999999996	29.999999999999996								
	63	73	0.00899317	0.0441317	0.021161	204.65	204.65	204.65	0	0	1	-29.999999999999996	29.999999999999996								
	64	61	0.0247274	0.0504625	0.00389364	69.75	69.75	69.75	0	0	1	-29.999999999999996	29.999999999999996								
	64	62	0.0185909	0.0516831	0.00336356	49.99	49.99	49.99	0	0	1	-29.999999999999996	29.999999999999996								
	66	70	0.0775854	0.186854	0.00374987	55.84	55.84	55.84	0	0	1	-29.999999999999996	29.999999999999996								
	67	69	0.000247637	0.00109325	0.0	99999.0	99999.0	99999.0	0	0	1	-29.999999999999996	29.999999999999996								
	67	71	0.01	0.07	0.0	220.00000000000003	220.00000000000003	220.00000000000003	0	0	1	-29.999999999999996	29.999999999999996								
	67	84	0.0174435	0.0973726	0.062295	193.76	193.76	193.76	0	0	1	-29.999999999999996	29.999999999999996								
	68	114	0.0576338	0.0976108	0.00478169	50.8	50.8	50.8	0	0	1	-29.999999999999996	29.999999999999996								
	68	540	0.140015	0.345219	0.0176072	49.46	49.46	49.46	0	0	1	-29.999999999999996	29.999999999999996								
	70	68	0.295903	0.4766	0.0102401	66.17	66.17	66.17	0	0	1	-29.999999999999996	29.999999999999996								
	70	68	0.295903	0.4766	0.0102401	66.17	66.17	66.17	0	0	1	-29.999999999999996	29.999999999999996								
	71	73	0.000258197	0.00116176	0.0	99999.0	99999.0	99999.0	0	0	1	-29.999999999999996	29.999999999999996								
	72	62	0.0615458	0.136756	0.00335725	68.81	68.81	68.81	0	0	1	-29.999999999999996	29.999999999999996								
	72	70	0.0432172	0.104951	0.00449017	65.12	65.12	65.12	0	0	1	-29.999999999999996	29.999999999999996								
	74	75	0.0157799	0.0362398	0.00373355	44.56	44.56	44.56	0	0	1	-29.999999999999996	29.999999999999996								
	75	77	0.0160396	0.051732	0.00218375	47.39	47.39	47.39	0	0	1	-29.999999999999996	29.999999999999996								
	76	78	0.000244189	0.00106703	0.0	99999.0	99999.0	99999.0	0	0	1	-29.999999999999996	29.999999999999996								
	77	80	0.106385	0.288295	0.0321868	43.17	43.17	43.17	0	0	1	-29.999999999999996	29.999999999999996								
	79	81	0.000291143	0.00109582	0.0	99999.0	99999.0	99999.0	0	0	1	-29.999999999999996	29.999999999999996								
	79	583	0.0107739	0.0577945	0.0467452	203.21000000000004	203.21000000000004	203.21000000000004	0	0	1	-29.999999999999996	29.999999999999996								
	80	582	0.136555	0.418502	0.00591819	52.910000000000004	52.910000000000004	52.910000000000004	0	0	1	-29.999999999999996	29.999999999999996								
	82	80	0.0670566	0.179301	0.00424244	51.019999999999996	51.019999999999996	51.019999999999996	0	0	1	-29.999999999999996	29.999999999999996								
	83	85	0.000215668	0.00115619	0.0	99999.0	99999.0	99999.0	0	0	1	-29.999999999999996	29.999999999999996								
	84	79	0.0174229	0.104359	0.0364631	178.64	178.64	178.64	0	0	1	-29.999999999999996	29.999999999999996								
	84	83	7.7e-5	0.005637	0.0	249.81	249.81	249.81	0	0	1	-29.999999999999996	29.999999999999996								
	86	30	0.00215456	0.0116695	0.0201028	223.69	223.69	223.69	0	0	1	-29.999999999999996	29.999999999999996								
	86	88	0.000272636	0.0010805	0.0	99999.0	99999.0	99999.0	0	0	1	-29.999999999999996	29.999999999999996								
	86	548	0.00655185	0.0267685	0.00992387	261.71	261.71	261.71	0	0	1	-29.999999999999996	29.999999999999996								
	86	548	0.00655185	0.0267685	0.00992387	261.71	261.71	261.71	0	0	1	-29.999999999999996	29.999999999999996								
	87	16	0.00903103	0.0200972	0.000811898	75.33	75.33	75.33	0	0	1	-29.999999999999996	29.999999999999996								
	87	16	0.00903103	0.0200972	0.000811898	75.33	75.33	75.33	0	0	1	-29.999999999999996	29.999999999999996								
	87	16	0.00903103	0.0200972	0.000811898	75.33	75.33	75.33	0	0	1	-29.999999999999996	29.999999999999996								
	87	245	0.0215529	0.0452311	0.00579575	57.45	57.45	57.45	0	0	1	-29.999999999999996	29.999999999999996								
	89	91	0.000262292	0.00112916	0.0	99999.0	99999.0	99999.0	0	0	1	-29.999999999999996	29.999999999999996								
	89	106	0.0049332	0.027038	0.0145293	339.82	339.82	339.82	0	0	1	-29.999999999999996	29.999999999999996								
	89	106	0.0049332	0.027038	0.0145293	339.82	339.82	339.82	0	0	1	-29.999999999999996	29.999999999999996								
	89	106	0.0049332	0.027038	0.0145293	339.82	339.82	339.82	0	0	1	-29.999999999999996	29.999999999999996								
	89	256	0.00321876	0.0194069	0.0071382	400.53999999999996	400.53999999999996	400.53999999999996	0	0	1	-29.999999999999996	29.999999999999996								
	89	382	0.00247514	0.0157938	0.0257527	340.14	340.14	340.14	0	0	1	-29.999999999999996	29.999999999999996								
	90	101	0.0135841	0.0402193	0.000924601	61.72	61.72	61.72	0	0	1	-29.999999999999996	29.999999999999996								
	90	241	0.0103536	0.0265833	0.00234702	66.61	66.61	66.61	0	0	1	-29.999999999999996	29.999999999999996								
	90	241	0.0103536	0.0265833	0.00234702	66.61	66.61	66.61	0	0	1	-29.999999999999996	29.999999999999996								
	90	255	0.0163281	0.0386576	0.00633577	79.03	79.03	79.03	0	0	1	-29.999999999999996	29.999999999999996								
	90	255	0.0163281	0.0386576	0.00633577	79.03	79.03	79.03	0	0	1	-29.999999999999996	29.999999999999996								
	90	255	0.0163281	0.0386576	0.00633577	79.03	79.03	79.03	0	0	1	-29.999999999999996	29.999999999999996								
	92	98	0.00878045	0.0230698	0.00110421	100.76	100.76	100.76	0	0	1	-29.999999999999996	29.999999999999996								
	92	330	0.00678989	0.0170465	0.00477099	74.17	74.17	74.17	0	0	1	-29.999999999999996	29.999999999999996								
	94	262	0.0142721	0.029344	0.0017331	79.5	79.5	79.5	0	0	1	-29.999999999999996	29.999999999999996								
	94	262	0.0142721	0.029344	0.0017331	79.5	79.5	79.5	0	0	1	-29.999999999999996	29.999999999999996								
	94	262	0.0142721	0.029344	0.0017331	79.5	79.5	79.5	0	0	1	-29.999999999999996	29.999999999999996								
	95	107	0.0232242	0.0598063	0.000771374	83.77	83.77	83.77	0	0	1	-29.999999999999996	29.999999999999996								
	95	323	0.0212776	0.0554299	0.00227383	69.02	69.02	69.02	0	0	1	-29.999999999999996	29.999999999999996								
	96	105	0.000408666	0.00511537	0.138302	1367.07	1367.07	1367.07	0	0	1	-29.999999999999996	29.999999999999996								
	96	337	0.0011469	0.0134575	0.247207	1220.57	1220.57	1220.57	0	0	1	-29.999999999999996	29.999999999999996								
...
];

%%-----  OPF Data  -----%%
%% cost data
%    1    startup    shutdown    n    x1    y1    ...    xn    yn
%    2    startup    shutdown    n    c(n-1)    ...    c0
mpc.gencost = [
	2	0.0	0.0	3	0.01633	21.37	-2.678
	2	0.0	0.0	3	0.01202	21.1	-2.186
	2	0.0	0.0	3	0.016560000000000002	22.01	-2.77
	2	0.0	0.0	3	0.01213	19.75	-2.049
	2	0.0	0.0	3	0.01459	24.09	-2.724
	2	0.0	0.0	3	0.019080000000000003	19.76	-2.386
	2	0.0	0.0	3	0.0	17.0	-1.619
	2	0.0	0.0	3	0.00103	9.129	0.0
	2	0.0	0.0	3	0.0017590000000000001	8.167	0.0
	2	0.0	0.0	3	0.0	17.39	0.0
	2	0.0	0.0	3	0.0	14.99	0.0
	2	0.0	0.0	3	0.0	14.55	0.0
	2	0.0	0.0	3	0.0	14.17	0.0
	2	0.0	0.0	3	0.0	16.79	0.0
	2	0.0	0.0	3	0.0	17.21	0.0
	2	0.0	0.0	3	0.026360000000000005	20.61	-2.442
	2	0.0	0.0	3	0.01985	17.37	-2.014
	2	0.0	0.0	3	0.01402	21.62	-2.032
	2	0.0	0.0	3	0.0159	19.4	-2.187
	2	0.0	0.0	3	0.01907	19.25	-2.47
	2	0.0	0.0	3	0.0	30.0	0.0
	2	0.0	0.0	3	0.0	30.0	0.0
	2	0.0	0.0	3	0.0	30.0	0.0
	2	0.0	0.0	3	0.0	30.0	0.0
	2	0.0	0.0	3	0.0	30.0	0.0
	2	0.0	0.0	3	0.0	30.0	0.0
	2	0.0	0.0	3	0.0	30.0	0.0
	2	0.0	0.0	3	0.0	30.0	0.0
	2	0.0	0.0	3	0.01882	19.24	-1.694
	2	0.0	0.0	3	0.01391	16.01	-1.18
	2	0.0	0.0	3	0.01059	18.9	-1.149
	2	0.0	0.0	3	0.016170000000000004	21.53	-1.659
	2	0.0	0.0	3	0.013830000000000002	17.44	-1.276
	2	0.0	0.0	3	0.01392	15.92	-1.169
	2	0.0	0.0	3	0.0017000000000000001	8.322	0.0
	2	0.0	0.0	3	0.001699	8.325	0.0
	2	0.0	0.0	3	0.0	17.95	0.0
	2	0.0	0.0	3	0.0	15.700000000000001	-13.46
	2	0.0	0.0	3	0.0	17.59	-15.85
	2	0.0	0.0	3	0.0	16.8	0.0
	2	0.0	0.0	3	0.0	18.72	0.0
	2	0.0	0.0	3	0.0	15.6	-12.39
	2	0.0	0.0	3	0.0145	14.870000000000001	0.0
	2	0.0	0.0	3	0.01184	18.04	-1.02
	2	0.0	0.0	3	0.014490000000000001	16.99	0.0
	2	0.0	0.0	3	0.020170000000000004	17.96	-1.156
	2	0.0	0.0	3	0.01708	16.48	0.0
	2	0.0	0.0	3	0.013580000000000002	14.24	0.0
	2	0.0	0.0	3	0.020420000000000004	25.400000000000002	-7.217
	2	0.0	0.0	3	0.020650000000000005	22.28	-5.772
	2	0.0	0.0	3	0.01162	29.89	-5.213
	2	0.0	0.0	3	0.026980000000000004	23.34	-6.146
	2	0.0	0.0	3	0.020780000000000003	17.19	-4.678
	2	0.0	0.0	3	0.01906	26.830000000000002	-6.793
	2	0.0	0.0	3	0.0	30.0	0.0
	2	0.0	0.0	3	0.0	30.0	0.0
	2	0.0	0.0	3	0.0	30.0	0.0
	2	0.0	0.0	3	0.0	30.0	0.0
	2	0.0	0.0	3	0.0	30.0	0.0
	2	0.0	0.0	3	0.0	30.0	0.0
	2	0.0	0.0	3	0.0	30.0	0.0
	2	0.0	0.0	3	0.0	30.0	0.0
	2	0.0	0.0	3	0.0	30.0	0.0
	2	0.0	0.0	3	0.0	30.0	0.0
	2	0.0	0.0	3	0.0	30.0	0.0
	2	0.0	0.0	3	0.0	30.0	0.0
	2	0.0	0.0	3	0.01864	19.46	-1.724
	2	0.0	0.0	3	0.02025	21.28	-2.006
	2	0.0	0.0	3	0.0	15.85	0.0
	2	0.0	0.0	3	0.0	14.68	0.0
	2	0.0	0.0	3	0.012640000000000002	21.19	-2.482
	2	0.0	0.0	3	0.02304	18.72	-2.847
	2	0.0	0.0	3	0.01249	20.53	-2.495
	2	0.0	0.0	3	0.01929	17.33	-2.237
	2	0.0	0.0	3	0.0	30.0	0.0
	2	0.0	0.0	3	0.0	30.0	0.0
	2	0.0	0.0	3	0.0	30.0	0.0
	2	0.0	0.0	3	0.0	30.0	0.0
	2	0.0	0.0	3	0.0	30.0	0.0
	2	0.0	0.0	3	0.0	30.0	0.0
	2	0.0	0.0	3	0.0	24.77	0.0
	2	0.0	0.0	3	0.0	23.89	0.0
	2	0.0	0.0	3	0.02341	27.19	-1.626
	2	0.0	0.0	3	0.01904	27.54	-1.546
	2	0.0	0.0	3	0.02612	28.97	-1.581
	2	0.0	0.0	3	0.0	27.490000000000002	-54.62
	2	0.0	0.0	3	0.0	28.490000000000002	-40.2
	2	0.0	0.0	3	0.0	30.0	0.0
	2	0.0	0.0	3	0.0	30.0	0.0
	2	0.0	0.0	3	0.0	30.0	0.0
	2	0.0	0.0	3	0.0	30.0	0.0
	2	0.0	0.0	3	0.0	30.0	0.0
	2	0.0	0.0	3	0.0	30.0	0.0
	2	0.0	0.0	3	0.02754	26.150000000000002	-2.426
	2	0.0	0.0	3	0.03375	29.900000000000002	-3.238
	2	0.0	0.0	3	0.030040000000000004	32.67	-3.029
	2	0.0	0.0	3	0.0281	29.57	-3.073
	2	0.0	0.0	3	0.02907	33.1	-3.287
	2	0.0	0.0	3	0.0	26.42	0.0
	2	0.0	0.0	3	0.0	23.67	0.0
	2	0.0	0.0	3	0.02786	27.39	-2.66
	2	0.0	0.0	3	0.03425	26.96	-2.562
	2	0.0	0.0	3	0.025260000000000005	34.17	-3.145
	2	0.0	0.0	3	0.0296	27.69	-2.616
	2	0.0	0.0	3	0.0	27.64	0.0
	2	0.0	0.0	3	0.030600000000000002	27.07	-1.764
	2	0.0	0.0	3	0.0347	31.91	-2.326
	2	0.0	0.0	3	0.026410000000000003	28.69	-2.552
	2	0.0	0.0	3	0.0268	30.990000000000002	-4.106
	2	0.0	0.0	3	0.02429	32.58	-4.626
	2	0.0	0.0	3	0.0315	30.79	-4.019
	2	0.0	0.0	3	0.03024	30.23	-4.252
	2	0.0	0.0	3	0.03373	29.46	-4.014
	2	0.0	0.0	3	0.02719	29.53	-4.077
	2	0.0	0.0	3	0.0	24.59	0.0
	2	0.0	0.0	3	0.06401000000000001	39.89	-13.58
	2	0.0	0.0	3	0.07569000000000001	39.52	-13.63
	2	0.0	0.0	3	0.01859	30.36	-2.086
	2	0.0	0.0	3	0.019940000000000003	29.900000000000002	-2.177
	2	0.0	0.0	3	0.02657	25.400000000000002	-2.084
	2	0.0	0.0	3	0.0267	30.43	-2.712
	2	0.0	0.0	3	0.0	27.95	0.0
	2	0.0	0.0	3	0.0	24.810000000000002	-9.402
	2	0.0	0.0	3	0.0	26.84	-9.579
	2	0.0	0.0	3	0.029	26.400000000000002	-2.688
	2	0.0	0.0	3	0.02399	29.87	-3.309
	2	0.0	0.0	3	0.021510000000000005	32.62	-3.169
	2	0.0	0.0	3	0.01814	33.13	-2.925
	2	0.0	0.0	3	0.029630000000000004	28.73	-3.319
	2	0.0	0.0	3	0.01967	35.42	-2.741
	2	0.0	0.0	3	0.01949	29.91	-2.624
	2	0.0	0.0	3	0.028880000000000003	34.36	-3.224
	2	0.0	0.0	3	0.0253	36.57	-4.649
	2	0.0	0.0	3	0.02194	39.92	-4.583
	2	0.0	0.0	3	0.022130000000000004	31.19	-3.989
	2	0.0	0.0	3	0.02108	33.81	-4.054
	2	0.0	0.0	3	0.0	24.64	0.0
	2	0.0	0.0	3	0.0	27.900000000000002	0.0
	2	0.0	0.0	3	0.0	28.82	0.0
	2	0.0	0.0	3	0.0	28.22	-20.92
	2	0.0	0.0	3	0.0	29.39	-33.23
	2	0.0	0.0	3	0.0	22.69	0.0
	2	0.0	0.0	3	0.03556	30.22	-3.324
	2	0.0	0.0	3	0.03452000000000001	29.8	-3.435
	2	0.0	0.0	3	0.02202	28.88	-2.864
	2	0.0	0.0	3	0.02202	28.75	-2.089
	2	0.0	0.0	3	0.02837	27.650000000000002	-2.337
	2	0.0	0.0	3	0.02073	30.25	-2.185
	2	0.0	0.0	3	0.030270000000000002	26.810000000000002	-1.859
	2	0.0	0.0	3	0.0	30.0	0.0
	2	0.0	0.0	3	0.0	30.0	0.0
	2	0.0	0.0	3	0.0	30.0	0.0
	2	0.0	0.0	3	0.0	30.0	0.0
	2	0.0	0.0	3	0.0	30.0	0.0
	2	0.0	0.0	3	0.0	30.0	0.0
	2	0.0	0.0	3	0.0	30.0	0.0
	2	0.0	0.0	3	0.0	30.0	0.0
	2	0.0	0.0	3	0.0	30.0	0.0
	2	0.0	0.0	3	0.0	30.0	0.0
	2	0.0	0.0	3	0.03427000000000001	27.54	-2.959
	2	0.0	0.0	3	0.02221	30.39	-2.577
	2	0.0	0.0	3	0.02558	29.29	-2.63
	2	0.0	0.0	3	0.0	30.0	0.0
	2	0.0	0.0	3	0.0	30.0	0.0
	2	0.0	0.0	3	0.0	30.0	0.0
	2	0.0	0.0	3	0.0	30.0	0.0
	2	0.0	0.0	3	0.0	30.0	0.0
	2	0.0	0.0	3	0.0	30.0	0.0
	2	0.0	0.0	3	0.0	28.39	-33.64
	2	0.0	0.0	3	0.0	28.91	-49.18
	2	0.0	0.0	3	0.0	29.59	-53.36
	2	0.0	0.0	3	0.0	0.0	0.0
	2	0.0	0.0	3	0.0	0.0	0.0
	2	0.0	0.0	3	0.0	0.0	0.0
	2	0.0	0.0	3	0.0	0.0	0.0
	2	0.0	0.0	3	0.02075	26.75	-1.37
	2	0.0	0.0	3	0.01686	30.82	-1.447
	2	0.0	0.0	3	0.05768000000000001	46.13	-11.66
	2	0.0	0.0	3	0.0	25.330000000000002	-12.06
	2	0.0	0.0	3	0.0	25.66	-4.68
	2	0.0	0.0	3	0.0	24.7	0.0
	2	0.0	0.0	3	0.0	26.63	0.0
	2	0.0	0.0	3	0.0	27.19	-6.785
	2	0.0	0.0	3	0.0	24.98	0.0
	2	0.0	0.0	3	0.0	26.85	0.0
	2	0.0	0.0	3	0.0	0.0	0.0
	2	0.0	0.0	3	0.0	0.0	0.0
	2	0.0	0.0	3	0.0	30.0	0.0
	2	0.0	0.0	3	0.0	24.29	-3.684
	2	0.0	0.0	3	0.0	27.13	-6.071
	2	0.0	0.0	3	0.02695	39.13	-6.398
	2	0.0	0.0	3	0.03977	30.07	-5.243
	2	0.0	0.0	3	0.02893	34.57	-6.352
	2	0.0	0.0	3	0.02362	40.79	-6.121
	2	0.0	0.0	3	0.027950000000000003	37.18	-6.334
	2	0.0	0.0	3	0.03193	29.68	-5.362
	2	0.0	0.0	3	0.07605000000000002	51.29	-17.35
	2	0.0	0.0	3	0.08277	40.29	-15.23
	2	0.0	0.0	3	0.07145	38.33	-14.3
	2	0.0	0.0	3	0.06763	41.08	-13.86
...
];

